<?xml version="1.0" encoding="UTF-8"?>

<!-- generated on 2025-05-21 05:05:04 by Eclipse SUMO netedit Version 1.22.0
-->

<routes xmlns:xsi="http://www.w3.org/2001/XMLSchema-instance" xsi:noNamespaceSchemaLocation="http://sumo.dlr.de/xsd/routes_file.xsd">
    <!-- VTypes -->
    <vType id="DEFAULT_RAILTYPE" length="2286.00" desiredMaxSpeed="8.94" vClass="rail"/>
    <vType id="DEFAULT_VEHTYPE" desiredMaxSpeed="17.88" color="yellow"/>
    <!-- Vehicles, persons and containers (sorted by depart) -->
    <flow id="f_0" begin="0.00" from="634020673#0" to="-340808718#0" via="E0 E0.79 1346606197 245915228#0 245915228#1 245915228#2 245915228#3 245915228#4 -1346338965 -1346082738#3 -1346082738#2 -1346082738#1 E1 E1.78 -1347512024 -1347512023#1 -1347512023#0 -1346082739 -340808718#10 -340808718#100 -340808718#9 -340808718#8 -340808718#7 -340808718#6 -340808718#5 -340808718#4 -340808718#3 -340808718#2 -340808718#1" end="3600.00" vehsPerHour="300"/>
    <flow id="f_10" begin="0.00" from="-19470790#0" to="1347512025" via="935204071#1" end="3600.00" vehsPerHour="10"/>
    <flow id="f_11" begin="0.00" from="-19470790#0" to="19471592#2" via="935204071#1 -E1 1346082738#1" end="3600.00" vehsPerHour="15"/>
    <flow id="f_12" begin="0.00" from="-1347512025" to="-340808718#0" via="-1347512024 -1347512023#1 -1347512023#0 -1346082739 -340808718#10 -340808718#100 -340808718#9 -340808718#8 -340808718#7 -340808718#6 -340808718#5 -340808718#4 -340808718#3 -340808718#2 -340808718#1" end="3600.00" vehsPerHour="25"/>
    <flow id="f_13" begin="0.00" from="-1347512025" to="-634020673#0" via="-E1 1346082738#1 1346082738#2 1346082738#3 1346338965 -245915228#4 -245915228#3 -245915228#2 -245915228#1 -245915228#0 -1346606197 -E0 -E00" end="3600.00" vehsPerHour="25"/>
    <flow id="f_14" begin="0.00" from="-1347512025" to="19470790#0" via="-935204071#1" end="3600.00" vehsPerHour="25"/>
    <flow id="f_15" begin="0.00" from="-19470790#0" to="1347512025" via="935204071#1" end="3600.00" vehsPerHour="25"/>
    <flow id="f_16" begin="0.00" from="-344605828#0" to="-340808718#0" via="-1346338965 -1346082738#3 -1346082738#2 -1346082738#1 E1 E1.78 -1347512024 -1347512023#1 -1347512023#0 -1346082739 -340808718#10 -340808718#100 -340808718#9 -340808718#8 -340808718#7 -340808718#6 -340808718#5 -340808718#4 -340808718#3 -340808718#2 -340808718#1" end="3600.00" vehsPerHour="45"/>
    <flow id="f_17" begin="0.00" from="-344605828#0" to="19483852" via="-245915228#4" end="3600.00" vehsPerHour="5"/>
    <flow id="f_18" begin="0.00" from="-344605828#0" to="-107195116#1" end="3600.00" vehsPerHour="25"/>
    <flow id="f_19" begin="0.00" from="107195116#0" to="634020683" via="-1346338965 -1346082738#3 -1346082738#2 -1346082738#1 E1 E1.78 -1347512024 -1347512023#1 -1347512023#0 -1346082739 -340808718#10" end="3600.00" vehsPerHour="25"/>
    <flow id="f_2" begin="0.00" color="blue" from="340808718#0" to="-634020673#0" via="340808718#1 340808718#2 340808718#3 340808718#4 340808718#5 340808718#6 340808718#7 340808718#8 340808718#9 340808718#10 340808718#10.50 1346082739 1347512023#0 1347512023#1 1347512024 -E1 1346082738#1 1346082738#2 1346082738#3 1346338965 -245915228#4 -245915228#3 -245915228#2 -245915228#1 -245915228#0 -1346606197 -E0 -E00" end="3600.00" number="250"/>
    <flow id="f_20" begin="0.00" from="107195116#0" to="107193983" via="-245915228#4 -245915228#3 -245915228#2 -245915228#1 -245915228#0 -1346606197" end="3600.00" vehsPerHour="50"/>
    <flow id="f_21" begin="0.00" from="634020673#0" to="1347512025" via="245915228#4 E1.78" end="3600.00" vehsPerHour="50"/>
    <flow id="f_22" begin="0.00" from="340808718#0" to="-935204071#1" via="340808718#10.50 1347512024" end="3600.00" vehsPerHour="50"/>
    <flow id="f_23" begin="0.00" from="107195116#0" to="344605828#0" end="3600.00" vehsPerHour="50"/>
    <flow id="f_24" begin="0.00" from="-344605828#0" to="-107195116#1" end="3600.00" vehsPerHour="50"/>
    <flow id="f_25" begin="0.00" from="634020673#0" to="-107195116#1" via="E0 E0.79 1346606197 245915228#4" end="3600.00" vehsPerHour="50"/>
    <flow id="f_26" begin="0.00" from="-19482366" to="-107195116#1" via="1346082738#3 1346338965" end="3600.00" vehsPerHour="5"/>
    <flow id="f_27" begin="0.00" from="19471592#1" to="19471592#2" end="3600.00" vehsPerHour="25"/>
    <flow id="f_28" begin="0.00" from="19471592#1" to="1347512025" via="-1346082738#1 E1 E1.78" end="3600.00" vehsPerHour="25"/>
    <flow id="f_29" begin="0.00" from="19471592#1" to="-107195116#1" via="1346082738#2 1346082738#3 1346338965" end="3600.00" vehsPerHour="50"/>
    <flow id="f_3" begin="0.00" from="340808718#0" to="-901681594#0" via="340808718#1 340808718#2 340808718#3 340808718#4 340808718#5 340808718#6 340808718#7 340808718#8 340808718#9 340808718#10 340808718#10.50 -683562137#2" end="3600.00" vehsPerHour="30"/>
    <flow id="f_30" begin="0.00" from="499316013#0" to="-107195116#1" via="245915228#1 245915228#2 245915228#3 245915228#4" end="3600.00" vehsPerHour="50"/>
    <flow id="f_31" begin="0.00" from="-19448698" to="-683562137#2" via="340808718#9 340808718#10 340808718#10.50" end="3600.00" vehsPerHour="50"/>
    <flow id="f_32" begin="0.00" from="-1347512025" to="634020683" via="-1347512024 -1347512023#1 -1347512023#0 -1346082739" end="3600.00" vehsPerHour="50"/>
    <flow id="f_33" begin="0.00" from="107195116#0" to="19468172" via="-245915228#4 -245915228#3 -245915228#2" end="3600.00" vehsPerHour="50"/>
    <flow id="f_34" begin="0.00" from="-344605828#0" to="19468172" via="-245915228#4 -245915228#3 -245915228#2" end="3600.00" vehsPerHour="50"/>
    <flow id="f_35" begin="0.00" from="-19468172" to="-340808718#0" via="245915228#2 245915228#3 245915228#4 -1346338965 -1346082738#3 -1346082738#2 -1346082738#1 E1 E1.78 -1347512024 -1347512023#1 -1347512023#0 -1346082739 -340808718#10 -340808718#100 -340808718#9 -340808718#8 -340808718#7 -340808718#6 -340808718#5 -340808718#4 -340808718#3 -340808718#2 -340808718#1" end="3600.00" vehsPerHour="50"/>
    <flow id="f_36" begin="0.00" from="634020673#0" to="19468172" via="E0 E0.79 1346606197 245915228#0 245915228#1" end="3600.00" vehsPerHour="75"/>
    <flow id="f_37" begin="0.00" from="-19475676" to="-19460106" via="340808718#3 340808718#4 340808718#5 340808718#6 340808718#7 340808718#8 340808718#9 340808718#10 340808718#10.50 1346082739 1347512023#0 1347512023#1 1347512024 -E1 1346082738#1 1346082738#2 1346082738#3 1346338965 -245915228#4 -245915228#3 -245915228#2 -245915228#1 -245915228#0 -1346606197" end="3600.00" vehsPerHour="75"/>
    <flow id="f_38" begin="0.00" from="19460106.847" to="107193983" end="3600.00" vehsPerHour="50"/>
    <flow id="f_39" begin="0.00" from="-107193983" to="-634020673#0" via="-E0 -E00" end="3600.00" vehsPerHour="75"/>
    <flow id="f_4" begin="0.00" from="-634020683" to="-19458273" via="-683562137#2 -683562137#1 -683562137#0" end="3600.00" vehsPerHour="70"/>
    <flow id="f_40" begin="0.00" from="-107193983" to="-19460106" end="3600.00" vehsPerHour="60"/>
    <flow id="f_41" begin="0.00" from="634020673#0" to="107193983" via="E0 E0.79" end="3600.00" vehsPerHour="40"/>
    <flow id="f_5" begin="0.00" from="-634020683" to="1347512025" via="1346082739 1347512023#0 1347512023#1 1347512024" end="3600.00" vehsPerHour="25"/>
    <flow id="f_6" begin="0.00" from="-634020683" to="-340808718#0" via="-340808718#10 -340808718#100 -340808718#9 -340808718#8 -340808718#7 -340808718#6" end="3600.00" vehsPerHour="25"/>
    <flow id="f_7" begin="0.00" from="19448704#00" to="634020683" via="683562137#1 683562137#2" end="3600.00" vehsPerHour="25"/>
    <flow id="f_8" begin="0.00" from="39447439#0" to="634020683" via="39447439#1 683562128 683562137#0 683562137#1 683562137#2" end="3600.00" vehsPerHour="25"/>
    <flow id="f_9" begin="0.00" from="-19470790#0" to="634020683" via="935204071#1 -1347512024 -1347512023#1 -1347512023#0 -1346082739" end="3600.00" vehsPerHour="25"/>
    <flow id="f_1" type="DEFAULT_RAILTYPE" begin="1200.00" from="832911536#0" to="832911536#1" end="3600.00" number="3"/>
</routes>
